*SPEF "IEEE 1481-1998"
*DESIGN "riscv8bit"
*DATE "Sun May 29 23:13:09 2022"
*VENDOR "Cadence Design Systems, Inc."
*PROGRAM "Innovus"
*VERSION "20.10-p004_1"
*DESIGN_FLOW "PIN_CAP NONE" "NAME_SCOPE LOCAL"
*DIVIDER /
*DELIMITER :
*BUS_DELIMITER []
*T_UNIT 1 NS
*C_UNIT 1 PF
*R_UNIT 1 OHM
*L_UNIT 1 HENRY

// MMMC spef file for corner 'rc_worst'

*NAME_MAP

*1 id_to_wb1/id_and_ex1/CTS_1
*2 id_to_wb1/id_and_ex1/id1/CTS_3
*3 id_to_wb1/id_and_ex1/id1/CTS_2
*4 id_to_wb1/CTS_1
*5 CTS_1
*6 id_to_wb1/id_and_ex1/alu1/FE_DBTN0_rd_data_from_id_0
*7 data_from_ram[7]
*8 data_from_ram[6]
*9 data_from_ram[5]
*10 data_from_ram[4]
*11 data_from_ram[3]
*12 data_from_ram[2]
*13 data_from_ram[1]
*14 data_from_ram[0]
*15 alu_result_from_idandex[7]
*16 alu_result_from_idandex[6]
*17 alu_result_from_idandex[5]
*18 alu_result_from_idandex[4]
*19 alu_result_from_idandex[3]
*20 alu_result_from_idandex[2]
*21 alu_result_from_idandex[1]
*22 alu_result_from_idandex[0]
*23 write_data_to_memory[7]
*24 write_data_to_memory[6]
*25 write_data_to_memory[5]
*26 write_data_to_memory[4]
*27 write_data_to_memory[3]
*28 write_data_to_memory[2]
*29 write_data_to_memory[1]
*30 write_data_to_memory[0]
*31 pc_increment_address[7]
*32 pc_increment_address[6]
*33 pc_increment_address[5]
*34 pc_increment_address[4]
*35 pc_increment_address[3]
*36 pc_increment_address[2]
*37 pc_increment_address[1]
*38 pc_increment_address[0]
*39 instruction_input[15]
*40 instruction_input[14]
*41 instruction_input[13]
*42 instruction_input[12]
*43 instruction_input[11]
*44 instruction_input[10]
*45 instruction_input[9]
*46 instruction_input[8]
*47 instruction_input[7]
*48 instruction_input[6]
*49 instruction_input[5]
*50 instruction_input[4]
*51 instruction_input[3]
*52 instruction_input[2]
*53 instruction_input[1]
*54 instruction_input[0]
*55 rst
*56 rst_registerfile
*57 clk
*58 mem_read_from_idandex
*59 mem_write_from_idandex
*60 id_to_wb1/regwrite_from_idandex
*61 id_to_wb1/mem_to_reg_from_idandex
*62 id_to_wb1/regwrite_from_wb
*63 id_to_wb1/instruction_from_idandex[2]
*64 id_to_wb1/instruction_from_idandex[1]
*65 id_to_wb1/instruction_from_idandex[0]
*66 id_to_wb1/wb_data[7]
*67 id_to_wb1/wb_data[6]
*68 id_to_wb1/wb_data[5]
*69 id_to_wb1/wb_data[4]
*70 id_to_wb1/wb_data[3]
*71 id_to_wb1/wb_data[2]
*72 id_to_wb1/wb_data[1]
*73 id_to_wb1/wb_data[0]
*74 id_to_wb1/wb_address[2]
*75 id_to_wb1/wb_address[1]
*76 id_to_wb1/wb_address[0]
*77 id_to_wb1/id_and_ex1/regwrite_from_id
*78 id_to_wb1/id_and_ex1/mem_read_from_id
*79 id_to_wb1/id_and_ex1/mem_write_from_id
*80 id_to_wb1/id_and_ex1/mem_to_reg_from_id
*81 id_to_wb1/id_and_ex1/alu_src_from_id
*82 id_to_wb1/id_and_ex1/rd_data_from_id[7]
*83 id_to_wb1/id_and_ex1/rd_data_from_id[6]
*84 id_to_wb1/id_and_ex1/rd_data_from_id[5]
*85 id_to_wb1/id_and_ex1/rd_data_from_id[4]
*86 id_to_wb1/id_and_ex1/rd_data_from_id[3]
*87 id_to_wb1/id_and_ex1/rd_data_from_id[2]
*88 id_to_wb1/id_and_ex1/rd_data_from_id[1]
*89 id_to_wb1/id_and_ex1/rd_data_from_id[0]
*90 id_to_wb1/id_and_ex1/rs_data_from_id[7]
*91 id_to_wb1/id_and_ex1/rs_data_from_id[6]
*92 id_to_wb1/id_and_ex1/rs_data_from_id[5]
*93 id_to_wb1/id_and_ex1/rs_data_from_id[4]
*94 id_to_wb1/id_and_ex1/rs_data_from_id[3]
*95 id_to_wb1/id_and_ex1/rs_data_from_id[2]
*96 id_to_wb1/id_and_ex1/rs_data_from_id[1]
*97 id_to_wb1/id_and_ex1/rs_data_from_id[0]
*98 id_to_wb1/id_and_ex1/instruction_from_id[15]
*99 id_to_wb1/id_and_ex1/instruction_from_id[14]
*100 id_to_wb1/id_and_ex1/instruction_from_id[13]
*101 id_to_wb1/id_and_ex1/instruction_from_id[12]
*102 id_to_wb1/id_and_ex1/instruction_from_id[11]
*103 id_to_wb1/id_and_ex1/instruction_from_id[10]
*104 id_to_wb1/id_and_ex1/instruction_from_id[9]
*105 id_to_wb1/id_and_ex1/instruction_from_id[8]
*106 id_to_wb1/id_and_ex1/instruction_from_id[7]
*107 id_to_wb1/id_and_ex1/instruction_from_id[6]
*108 id_to_wb1/id_and_ex1/instruction_from_id[5]
*109 id_to_wb1/id_and_ex1/instruction_from_id[4]
*110 id_to_wb1/id_and_ex1/instruction_from_id[3]
*111 id_to_wb1/id_and_ex1/instruction_from_id[2]
*112 id_to_wb1/id_and_ex1/instruction_from_id[1]
*113 id_to_wb1/id_and_ex1/instruction_from_id[0]
*114 id_to_wb1/id_and_ex1/alu_result_from_alu[7]
*115 id_to_wb1/id_and_ex1/alu_result_from_alu[6]
*116 id_to_wb1/id_and_ex1/alu_result_from_alu[5]
*117 id_to_wb1/id_and_ex1/alu_result_from_alu[4]
*118 id_to_wb1/id_and_ex1/alu_result_from_alu[3]
*119 id_to_wb1/id_and_ex1/alu_result_from_alu[2]
*120 id_to_wb1/id_and_ex1/alu_result_from_alu[1]
*121 id_to_wb1/id_and_ex1/alu_result_from_alu[0]
*122 id_to_wb1/id_and_ex1/id1/regwrite_from_control
*123 id_to_wb1/id_and_ex1/id1/mem_read_from_control
*124 id_to_wb1/id_and_ex1/id1/mem_write_from_control
*125 id_to_wb1/id_and_ex1/id1/alu_src_from_control
*126 id_to_wb1/id_and_ex1/id1/instruction_from_ifid[15]
*127 id_to_wb1/id_and_ex1/id1/instruction_from_ifid[14]
*128 id_to_wb1/id_and_ex1/id1/instruction_from_ifid[13]
*129 id_to_wb1/id_and_ex1/id1/instruction_from_ifid[12]
*130 id_to_wb1/id_and_ex1/id1/instruction_from_ifid[11]
*131 id_to_wb1/id_and_ex1/id1/instruction_from_ifid[10]
*132 id_to_wb1/id_and_ex1/id1/instruction_from_ifid[9]
*133 id_to_wb1/id_and_ex1/id1/instruction_from_ifid[8]
*134 id_to_wb1/id_and_ex1/id1/instruction_from_ifid[7]
*135 id_to_wb1/id_and_ex1/id1/instruction_from_ifid[6]
*136 id_to_wb1/id_and_ex1/id1/instruction_from_ifid[5]
*137 id_to_wb1/id_and_ex1/id1/instruction_from_ifid[4]
*138 id_to_wb1/id_and_ex1/id1/instruction_from_ifid[3]
*139 id_to_wb1/id_and_ex1/id1/instruction_from_ifid[2]
*140 id_to_wb1/id_and_ex1/id1/instruction_from_ifid[1]
*141 id_to_wb1/id_and_ex1/id1/instruction_from_ifid[0]
*142 id_to_wb1/id_and_ex1/id1/rd[7]
*143 id_to_wb1/id_and_ex1/id1/rd[6]
*144 id_to_wb1/id_and_ex1/id1/rd[5]
*145 id_to_wb1/id_and_ex1/id1/rd[4]
*146 id_to_wb1/id_and_ex1/id1/rd[3]
*147 id_to_wb1/id_and_ex1/id1/rd[2]
*148 id_to_wb1/id_and_ex1/id1/rd[1]
*149 id_to_wb1/id_and_ex1/id1/rd[0]
*150 id_to_wb1/id_and_ex1/id1/rs[7]
*151 id_to_wb1/id_and_ex1/id1/rs[6]
*152 id_to_wb1/id_and_ex1/id1/rs[5]
*153 id_to_wb1/id_and_ex1/id1/rs[4]
*154 id_to_wb1/id_and_ex1/id1/rs[3]
*155 id_to_wb1/id_and_ex1/id1/rs[2]
*156 id_to_wb1/id_and_ex1/id1/rs[1]
*157 id_to_wb1/id_and_ex1/id1/rs[0]
*158 id_to_wb1/id_and_ex1/id1/ifid1/N3
*159 id_to_wb1/id_and_ex1/id1/ifid1/N4
*160 id_to_wb1/id_and_ex1/id1/ifid1/N5
*161 id_to_wb1/id_and_ex1/id1/ifid1/N6
*162 id_to_wb1/id_and_ex1/id1/ifid1/N7
*163 id_to_wb1/id_and_ex1/id1/ifid1/N8
*164 id_to_wb1/id_and_ex1/id1/ifid1/N9
*165 id_to_wb1/id_and_ex1/id1/ifid1/N10
*166 id_to_wb1/id_and_ex1/id1/ifid1/N11
*167 id_to_wb1/id_and_ex1/id1/ifid1/N12
*168 id_to_wb1/id_and_ex1/id1/ifid1/N13
*169 id_to_wb1/id_and_ex1/id1/ifid1/N14
*170 id_to_wb1/id_and_ex1/id1/ifid1/N15
*171 id_to_wb1/id_and_ex1/id1/ifid1/N16
*172 id_to_wb1/id_and_ex1/id1/ifid1/N17
*173 id_to_wb1/id_and_ex1/id1/ifid1/N18
*174 id_to_wb1/id_and_ex1/id1/ifid1/n1
*175 id_to_wb1/id_and_ex1/id1/registerfile1/n1
*176 id_to_wb1/id_and_ex1/id1/registerfile1/n2
*177 id_to_wb1/id_and_ex1/id1/registerfile1/n3
*178 id_to_wb1/id_and_ex1/id1/registerfile1/n4
*179 id_to_wb1/id_and_ex1/id1/registerfile1/n5
*180 id_to_wb1/id_and_ex1/id1/registerfile1/n6
*181 id_to_wb1/id_and_ex1/id1/registerfile1/n7
*182 id_to_wb1/id_and_ex1/id1/registerfile1/n8
*183 id_to_wb1/id_and_ex1/id1/registerfile1/n9
*184 id_to_wb1/id_and_ex1/id1/registerfile1/n10
*185 id_to_wb1/id_and_ex1/id1/registerfile1/n11
*186 id_to_wb1/id_and_ex1/id1/registerfile1/n12
*187 id_to_wb1/id_and_ex1/id1/registerfile1/n13
*188 id_to_wb1/id_and_ex1/id1/registerfile1/n14
*189 id_to_wb1/id_and_ex1/id1/registerfile1/n15
*190 id_to_wb1/id_and_ex1/id1/registerfile1/n16
*191 id_to_wb1/id_and_ex1/id1/registerfile1/n17
*192 id_to_wb1/id_and_ex1/id1/registerfile1/n18
*193 id_to_wb1/id_and_ex1/id1/registerfile1/n19
*194 id_to_wb1/id_and_ex1/id1/registerfile1/n20
*195 id_to_wb1/id_and_ex1/id1/registerfile1/n21
*196 id_to_wb1/id_and_ex1/id1/registerfile1/n22
*197 id_to_wb1/id_and_ex1/id1/registerfile1/n23
*198 id_to_wb1/id_and_ex1/id1/registerfile1/n24
*199 id_to_wb1/id_and_ex1/id1/registerfile1/n25
*200 id_to_wb1/id_and_ex1/id1/registerfile1/n26
*201 id_to_wb1/id_and_ex1/id1/registerfile1/n27
*202 id_to_wb1/id_and_ex1/id1/registerfile1/n28
*203 id_to_wb1/id_and_ex1/id1/registerfile1/n29
*204 id_to_wb1/id_and_ex1/id1/registerfile1/n30
*205 id_to_wb1/id_and_ex1/id1/registerfile1/n31
*206 id_to_wb1/id_and_ex1/id1/registerfile1/n32
*207 id_to_wb1/id_and_ex1/id1/registerfile1/n33
*208 id_to_wb1/id_and_ex1/id1/registerfile1/n34
*209 id_to_wb1/id_and_ex1/id1/registerfile1/n35
*210 id_to_wb1/id_and_ex1/id1/registerfile1/n36
*211 id_to_wb1/id_and_ex1/id1/registerfile1/n37
*212 id_to_wb1/id_and_ex1/id1/registerfile1/n38
*213 id_to_wb1/id_and_ex1/id1/registerfile1/n39
*214 id_to_wb1/id_and_ex1/id1/registerfile1/n40
*215 id_to_wb1/id_and_ex1/id1/registerfile1/n41
*216 id_to_wb1/id_and_ex1/id1/registerfile1/n42
*217 id_to_wb1/id_and_ex1/id1/registerfile1/n43
*218 id_to_wb1/id_and_ex1/id1/registerfile1/n44
*219 id_to_wb1/id_and_ex1/id1/registerfile1/n45
*220 id_to_wb1/id_and_ex1/id1/registerfile1/n46
*221 id_to_wb1/id_and_ex1/id1/registerfile1/n47
*222 id_to_wb1/id_and_ex1/id1/registerfile1/n48
*223 id_to_wb1/id_and_ex1/id1/registerfile1/n49
*224 id_to_wb1/id_and_ex1/id1/registerfile1/n50
*225 id_to_wb1/id_and_ex1/id1/registerfile1/n51
*226 id_to_wb1/id_and_ex1/id1/registerfile1/n52
*227 id_to_wb1/id_and_ex1/id1/registerfile1/n53
*228 id_to_wb1/id_and_ex1/id1/registerfile1/n54
*229 id_to_wb1/id_and_ex1/id1/registerfile1/n55
*230 id_to_wb1/id_and_ex1/id1/registerfile1/n56
*231 id_to_wb1/id_and_ex1/id1/registerfile1/n68
*232 id_to_wb1/id_and_ex1/id1/registerfile1/n69
*233 id_to_wb1/id_and_ex1/id1/registerfile1/n70
*234 id_to_wb1/id_and_ex1/id1/registerfile1/n71
*235 id_to_wb1/id_and_ex1/id1/registerfile1/n72
*236 id_to_wb1/id_and_ex1/id1/registerfile1/n73
*237 id_to_wb1/id_and_ex1/id1/registerfile1/n74
*238 id_to_wb1/id_and_ex1/id1/registerfile1/n75
*239 id_to_wb1/id_and_ex1/id1/registerfile1/n76
*240 id_to_wb1/id_and_ex1/id1/registerfile1/n77
*241 id_to_wb1/id_and_ex1/id1/registerfile1/n78
*242 id_to_wb1/id_and_ex1/id1/registerfile1/n79
*243 id_to_wb1/id_and_ex1/id1/registerfile1/n80
*244 id_to_wb1/id_and_ex1/id1/registerfile1/n81
*245 id_to_wb1/id_and_ex1/id1/registerfile1/n82
*246 id_to_wb1/id_and_ex1/id1/registerfile1/n83
*247 id_to_wb1/id_and_ex1/id1/registerfile1/n84
*248 id_to_wb1/id_and_ex1/id1/registerfile1/n85
*249 id_to_wb1/id_and_ex1/id1/registerfile1/n86
*250 id_to_wb1/id_and_ex1/id1/registerfile1/n87
*251 id_to_wb1/id_and_ex1/id1/registerfile1/n88
*252 id_to_wb1/id_and_ex1/id1/registerfile1/n89
*253 id_to_wb1/id_and_ex1/id1/registerfile1/n90
*254 id_to_wb1/id_and_ex1/id1/registerfile1/n91
*255 id_to_wb1/id_and_ex1/id1/registerfile1/n92
*256 id_to_wb1/id_and_ex1/id1/registerfile1/n93
*257 id_to_wb1/id_and_ex1/id1/registerfile1/n94
*258 id_to_wb1/id_and_ex1/id1/registerfile1/n95
*259 id_to_wb1/id_and_ex1/id1/registerfile1/n96
*260 id_to_wb1/id_and_ex1/id1/registerfile1/n97
*261 id_to_wb1/id_and_ex1/id1/registerfile1/n98
*262 id_to_wb1/id_and_ex1/id1/registerfile1/n99
*263 id_to_wb1/id_and_ex1/id1/registerfile1/n100
*264 id_to_wb1/id_and_ex1/id1/registerfile1/n101
*265 id_to_wb1/id_and_ex1/id1/registerfile1/n102
*266 id_to_wb1/id_and_ex1/id1/registerfile1/n103
*267 id_to_wb1/id_and_ex1/id1/registerfile1/n104
*268 id_to_wb1/id_and_ex1/id1/registerfile1/n105
*269 id_to_wb1/id_and_ex1/id1/registerfile1/n106
*270 id_to_wb1/id_and_ex1/id1/registerfile1/n107
*271 id_to_wb1/id_and_ex1/id1/registerfile1/n108
*272 id_to_wb1/id_and_ex1/id1/registerfile1/n109
*273 id_to_wb1/id_and_ex1/id1/registerfile1/n110
*274 id_to_wb1/id_and_ex1/id1/registerfile1/n111
*275 id_to_wb1/id_and_ex1/id1/registerfile1/n112
*276 id_to_wb1/id_and_ex1/id1/registerfile1/n113
*277 id_to_wb1/id_and_ex1/id1/registerfile1/n114
*278 id_to_wb1/id_and_ex1/id1/registerfile1/n115
*279 id_to_wb1/id_and_ex1/id1/registerfile1/n116
*280 id_to_wb1/id_and_ex1/id1/registerfile1/n117
*281 id_to_wb1/id_and_ex1/id1/registerfile1/n118
*282 id_to_wb1/id_and_ex1/id1/registerfile1/n119
*283 id_to_wb1/id_and_ex1/id1/registerfile1/n120
*284 id_to_wb1/id_and_ex1/id1/registerfile1/n121
*285 id_to_wb1/id_and_ex1/id1/registerfile1/n122
*286 id_to_wb1/id_and_ex1/id1/registerfile1/n123
*287 id_to_wb1/id_and_ex1/id1/registerfile1/n124
*288 id_to_wb1/id_and_ex1/id1/registerfile1/n125
*289 id_to_wb1/id_and_ex1/id1/registerfile1/n126
*290 id_to_wb1/id_and_ex1/id1/registerfile1/n127
*291 id_to_wb1/id_and_ex1/id1/registerfile1/n128
*292 id_to_wb1/id_and_ex1/id1/registerfile1/n129
*293 id_to_wb1/id_and_ex1/id1/registerfile1/n130
*294 id_to_wb1/id_and_ex1/id1/registerfile1/n131
*295 id_to_wb1/id_and_ex1/id1/registerfile1/n132
*296 id_to_wb1/id_and_ex1/id1/registerfile1/n133
*297 id_to_wb1/id_and_ex1/id1/registerfile1/n134
*298 id_to_wb1/id_and_ex1/id1/registerfile1/n135
*299 id_to_wb1/id_and_ex1/id1/registerfile1/n136
*300 id_to_wb1/id_and_ex1/id1/registerfile1/n137
*301 id_to_wb1/id_and_ex1/id1/registerfile1/n138
*302 id_to_wb1/id_and_ex1/id1/registerfile1/n139
*303 id_to_wb1/id_and_ex1/id1/registerfile1/n140
*304 id_to_wb1/id_and_ex1/id1/registerfile1/n141
*305 id_to_wb1/id_and_ex1/id1/registerfile1/n142
*306 id_to_wb1/id_and_ex1/id1/registerfile1/n143
*307 id_to_wb1/id_and_ex1/id1/registerfile1/n144
*308 id_to_wb1/id_and_ex1/id1/registerfile1/n145
*309 id_to_wb1/id_and_ex1/id1/registerfile1/n146
*310 id_to_wb1/id_and_ex1/id1/registerfile1/n147
*311 id_to_wb1/id_and_ex1/id1/registerfile1/n148
*312 id_to_wb1/id_and_ex1/id1/registerfile1/n149
*313 id_to_wb1/id_and_ex1/id1/registerfile1/n150
*314 id_to_wb1/id_and_ex1/id1/registerfile1/n151
*315 id_to_wb1/id_and_ex1/id1/registerfile1/n152
*316 id_to_wb1/id_and_ex1/id1/registerfile1/n153
*317 id_to_wb1/id_and_ex1/id1/registerfile1/n154
*318 id_to_wb1/id_and_ex1/id1/registerfile1/n155
*319 id_to_wb1/id_and_ex1/id1/registerfile1/n156
*320 id_to_wb1/id_and_ex1/id1/registerfile1/n157
*321 id_to_wb1/id_and_ex1/id1/registerfile1/n158
*322 id_to_wb1/id_and_ex1/id1/registerfile1/n159
*323 id_to_wb1/id_and_ex1/id1/registerfile1/n160
*324 id_to_wb1/id_and_ex1/id1/registerfile1/n161
*325 id_to_wb1/id_and_ex1/id1/registerfile1/n162
*326 id_to_wb1/id_and_ex1/id1/registerfile1/n163
*327 id_to_wb1/id_and_ex1/id1/registerfile1/n164
*328 id_to_wb1/id_and_ex1/id1/registerfile1/n165
*329 id_to_wb1/id_and_ex1/id1/registerfile1/n166
*330 id_to_wb1/id_and_ex1/id1/registerfile1/n167
*331 id_to_wb1/id_and_ex1/id1/registerfile1/n168
*332 id_to_wb1/id_and_ex1/id1/registerfile1/n169
*333 id_to_wb1/id_and_ex1/id1/registerfile1/n170
*334 id_to_wb1/id_and_ex1/id1/registerfile1/n171
*335 id_to_wb1/id_and_ex1/id1/registerfile1/n172
*336 id_to_wb1/id_and_ex1/id1/registerfile1/n173
*337 id_to_wb1/id_and_ex1/id1/registerfile1/n57
*338 id_to_wb1/id_and_ex1/id1/registerfile1/n58
*339 id_to_wb1/id_and_ex1/id1/registerfile1/n59
*340 id_to_wb1/id_and_ex1/id1/registerfile1/n60
*341 id_to_wb1/id_and_ex1/id1/registerfile1/n61
*342 id_to_wb1/id_and_ex1/id1/registerfile1/n62
*343 id_to_wb1/id_and_ex1/id1/registerfile1/n63
*344 id_to_wb1/id_and_ex1/id1/registerfile1/n64
*345 id_to_wb1/id_and_ex1/id1/registerfile1/n65
*346 id_to_wb1/id_and_ex1/id1/registerfile1/n66
*347 id_to_wb1/id_and_ex1/id1/registerfile1/n67
*348 id_to_wb1/id_and_ex1/id1/registerfile1/n174
*349 id_to_wb1/id_and_ex1/id1/registerfile1/n175
*350 id_to_wb1/id_and_ex1/id1/registerfile1/n176
*351 id_to_wb1/id_and_ex1/id1/registerfile1/n177
*352 id_to_wb1/id_and_ex1/id1/registerfile1/n178
*353 id_to_wb1/id_and_ex1/id1/registerfile1/n179
*354 id_to_wb1/id_and_ex1/id1/registerfile1/n180
*355 id_to_wb1/id_and_ex1/id1/registerfile1/n181
*356 id_to_wb1/id_and_ex1/id1/registerfile1/n182
*357 id_to_wb1/id_and_ex1/id1/registerfile1/n183
*358 id_to_wb1/id_and_ex1/id1/registerfile1/n184
*359 id_to_wb1/id_and_ex1/id1/registerfile1/n185
*360 id_to_wb1/id_and_ex1/id1/registerfile1/n186
*361 id_to_wb1/id_and_ex1/id1/registerfile1/n187
*362 id_to_wb1/id_and_ex1/id1/registerfile1/n188
*363 id_to_wb1/id_and_ex1/id1/registerfile1/n189
*364 id_to_wb1/id_and_ex1/id1/registerfile1/n190
*365 id_to_wb1/id_and_ex1/id1/registerfile1/n191
*366 id_to_wb1/id_and_ex1/id1/registerfile1/n192
*367 id_to_wb1/id_and_ex1/id1/registerfile1/n193
*368 id_to_wb1/id_and_ex1/id1/registerfile1/n194
*369 id_to_wb1/id_and_ex1/id1/registerfile1/n195
*370 id_to_wb1/id_and_ex1/id1/registerfile1/n196
*371 id_to_wb1/id_and_ex1/id1/registerfile1/n197
*372 id_to_wb1/id_and_ex1/id1/registerfile1/n198
*373 id_to_wb1/id_and_ex1/id1/registerfile1/n199
*374 id_to_wb1/id_and_ex1/id1/registerfile1/n200
*375 id_to_wb1/id_and_ex1/id1/registerfile1/n201
*376 id_to_wb1/id_and_ex1/id1/registerfile1/n202
*377 id_to_wb1/id_and_ex1/id1/registerfile1/n203
*378 id_to_wb1/id_and_ex1/id1/registerfile1/n204
*379 id_to_wb1/id_and_ex1/id1/registerfile1/n205
*380 id_to_wb1/id_and_ex1/id1/registerfile1/n206
*381 id_to_wb1/id_and_ex1/id1/registerfile1/n207
*382 id_to_wb1/id_and_ex1/id1/registerfile1/n208
*383 id_to_wb1/id_and_ex1/id1/registerfile1/n209
*384 id_to_wb1/id_and_ex1/id1/registerfile1/n210
*385 id_to_wb1/id_and_ex1/id1/registerfile1/n211
*386 id_to_wb1/id_and_ex1/id1/registerfile1/n212
*387 id_to_wb1/id_and_ex1/id1/registerfile1/n213
*388 id_to_wb1/id_and_ex1/id1/registerfile1/n214
*389 id_to_wb1/id_and_ex1/id1/registerfile1/n215
*390 id_to_wb1/id_and_ex1/id1/registerfile1/n216
*391 id_to_wb1/id_and_ex1/id1/registerfile1/n217
*392 id_to_wb1/id_and_ex1/id1/registerfile1/n218
*393 id_to_wb1/id_and_ex1/id1/registerfile1/n219
*394 id_to_wb1/id_and_ex1/id1/registerfile1/n220
*395 id_to_wb1/id_and_ex1/id1/registerfile1/n221
*396 id_to_wb1/id_and_ex1/id1/registerfile1/n222
*397 id_to_wb1/id_and_ex1/id1/registerfile1/n223
*398 id_to_wb1/id_and_ex1/id1/registerfile1/n224
*399 id_to_wb1/id_and_ex1/id1/registerfile1/n225
*400 id_to_wb1/id_and_ex1/id1/registerfile1/n226
*401 id_to_wb1/id_and_ex1/id1/registerfile1/n227
*402 id_to_wb1/id_and_ex1/id1/registerfile1/n228
*403 id_to_wb1/id_and_ex1/id1/registerfile1/n229
*404 id_to_wb1/id_and_ex1/id1/registerfile1/n230
*405 id_to_wb1/id_and_ex1/id1/registerfile1/n231
*406 id_to_wb1/id_and_ex1/id1/registerfile1/n232
*407 id_to_wb1/id_and_ex1/id1/registerfile1/n233
*408 id_to_wb1/id_and_ex1/id1/registerfile1/n234
*409 id_to_wb1/id_and_ex1/id1/registerfile1/n235
*410 id_to_wb1/id_and_ex1/id1/registerfile1/n236
*411 id_to_wb1/id_and_ex1/id1/registerfile1/n237
*412 id_to_wb1/id_and_ex1/id1/registerfile1/n238
*413 id_to_wb1/id_and_ex1/id1/registerfile1/n239
*414 id_to_wb1/id_and_ex1/id1/registerfile1/n240
*415 id_to_wb1/id_and_ex1/id1/registerfile1/n241
*416 id_to_wb1/id_and_ex1/id1/registerfile1/n242
*417 id_to_wb1/id_and_ex1/id1/registerfile1/n243
*418 id_to_wb1/id_and_ex1/id1/registerfile1/n244
*419 id_to_wb1/id_and_ex1/id1/registerfile1/n245
*420 id_to_wb1/id_and_ex1/id1/registerfile1/n246
*421 id_to_wb1/id_and_ex1/id1/registerfile1/n247
*422 id_to_wb1/id_and_ex1/id1/registerfile1/n248
*423 id_to_wb1/id_and_ex1/id1/registerfile1/n249
*424 id_to_wb1/id_and_ex1/id1/registerfile1/n250
*425 id_to_wb1/id_and_ex1/id1/registerfile1/n251
*426 id_to_wb1/id_and_ex1/id1/registerfile1/n252
*427 id_to_wb1/id_and_ex1/id1/registerfile1/n253
*428 id_to_wb1/id_and_ex1/id1/registerfile1/n254
*429 id_to_wb1/id_and_ex1/id1/registerfile1/n255
*430 id_to_wb1/id_and_ex1/id1/registerfile1/n256
*431 id_to_wb1/id_and_ex1/id1/registerfile1/n257
*432 id_to_wb1/id_and_ex1/id1/registerfile1/n258
*433 id_to_wb1/id_and_ex1/id1/registerfile1/n259
*434 id_to_wb1/id_and_ex1/id1/registerfile1/n260
*435 id_to_wb1/id_and_ex1/id1/registerfile1/n261
*436 id_to_wb1/id_and_ex1/id1/registerfile1/n262
*437 id_to_wb1/id_and_ex1/id1/registerfile1/n263
*438 id_to_wb1/id_and_ex1/id1/registerfile1/n264
*439 id_to_wb1/id_and_ex1/id1/registerfile1/n265
*440 id_to_wb1/id_and_ex1/id1/registerfile1/n266
*441 id_to_wb1/id_and_ex1/id1/registerfile1/n267
*442 id_to_wb1/id_and_ex1/id1/registerfile1/n268
*443 id_to_wb1/id_and_ex1/id1/registerfile1/n269
*444 id_to_wb1/id_and_ex1/id1/registerfile1/n270
*445 id_to_wb1/id_and_ex1/id1/registerfile1/n271
*446 id_to_wb1/id_and_ex1/id1/registerfile1/n272
*447 id_to_wb1/id_and_ex1/id1/registerfile1/n273
*448 id_to_wb1/id_and_ex1/id1/registerfile1/n274
*449 id_to_wb1/id_and_ex1/id1/registerfile1/n275
*450 id_to_wb1/id_and_ex1/id1/registerfile1/n276
*451 id_to_wb1/id_and_ex1/id1/registerfile1/n277
*452 id_to_wb1/id_and_ex1/id1/registerfile1/n278
*453 id_to_wb1/id_and_ex1/id1/registerfile1/n279
*454 id_to_wb1/id_and_ex1/id1/registerfile1/n280
*455 id_to_wb1/id_and_ex1/id1/registerfile1/n281
*456 id_to_wb1/id_and_ex1/id1/registerfile1/n282
*457 id_to_wb1/id_and_ex1/id1/registerfile1/n283
*458 id_to_wb1/id_and_ex1/id1/registerfile1/register_memory[63]
*459 id_to_wb1/id_and_ex1/id1/registerfile1/register_memory[62]
*460 id_to_wb1/id_and_ex1/id1/registerfile1/register_memory[61]
*461 id_to_wb1/id_and_ex1/id1/registerfile1/register_memory[60]
*462 id_to_wb1/id_and_ex1/id1/registerfile1/register_memory[59]
*463 id_to_wb1/id_and_ex1/id1/registerfile1/register_memory[58]
*464 id_to_wb1/id_and_ex1/id1/registerfile1/register_memory[57]
*465 id_to_wb1/id_and_ex1/id1/registerfile1/register_memory[56]
*466 id_to_wb1/id_and_ex1/id1/registerfile1/register_memory[55]
*467 id_to_wb1/id_and_ex1/id1/registerfile1/register_memory[54]
*468 id_to_wb1/id_and_ex1/id1/registerfile1/register_memory[53]
*469 id_to_wb1/id_and_ex1/id1/registerfile1/register_memory[52]
*470 id_to_wb1/id_and_ex1/id1/registerfile1/register_memory[51]
*471 id_to_wb1/id_and_ex1/id1/registerfile1/register_memory[50]
*472 id_to_wb1/id_and_ex1/id1/registerfile1/register_memory[49]
*473 id_to_wb1/id_and_ex1/id1/registerfile1/register_memory[48]
*474 id_to_wb1/id_and_ex1/id1/registerfile1/register_memory[47]
*475 id_to_wb1/id_and_ex1/id1/registerfile1/register_memory[46]
*476 id_to_wb1/id_and_ex1/id1/registerfile1/register_memory[45]
*477 id_to_wb1/id_and_ex1/id1/registerfile1/register_memory[44]
*478 id_to_wb1/id_and_ex1/id1/registerfile1/register_memory[43]
*479 id_to_wb1/id_and_ex1/id1/registerfile1/register_memory[42]
*480 id_to_wb1/id_and_ex1/id1/registerfile1/register_memory[41]
*481 id_to_wb1/id_and_ex1/id1/registerfile1/register_memory[40]
*482 id_to_wb1/id_and_ex1/id1/registerfile1/register_memory[39]
*483 id_to_wb1/id_and_ex1/id1/registerfile1/register_memory[38]
*484 id_to_wb1/id_and_ex1/id1/registerfile1/register_memory[37]
*485 id_to_wb1/id_and_ex1/id1/registerfile1/register_memory[36]
*486 id_to_wb1/id_and_ex1/id1/registerfile1/register_memory[35]
*487 id_to_wb1/id_and_ex1/id1/registerfile1/register_memory[34]
*488 id_to_wb1/id_and_ex1/id1/registerfile1/register_memory[33]
*489 id_to_wb1/id_and_ex1/id1/registerfile1/register_memory[32]
*490 id_to_wb1/id_and_ex1/id1/registerfile1/register_memory[31]
*491 id_to_wb1/id_and_ex1/id1/registerfile1/register_memory[30]
*492 id_to_wb1/id_and_ex1/id1/registerfile1/register_memory[29]
*493 id_to_wb1/id_and_ex1/id1/registerfile1/register_memory[28]
*494 id_to_wb1/id_and_ex1/id1/registerfile1/register_memory[27]
*495 id_to_wb1/id_and_ex1/id1/registerfile1/register_memory[26]
*496 id_to_wb1/id_and_ex1/id1/registerfile1/register_memory[25]
*497 id_to_wb1/id_and_ex1/id1/registerfile1/register_memory[24]
*498 id_to_wb1/id_and_ex1/id1/registerfile1/register_memory[23]
*499 id_to_wb1/id_and_ex1/id1/registerfile1/register_memory[22]
*500 id_to_wb1/id_and_ex1/id1/registerfile1/register_memory[21]
*501 id_to_wb1/id_and_ex1/id1/registerfile1/register_memory[20]
*502 id_to_wb1/id_and_ex1/id1/registerfile1/register_memory[19]
*503 id_to_wb1/id_and_ex1/id1/registerfile1/register_memory[18]
*504 id_to_wb1/id_and_ex1/id1/registerfile1/register_memory[17]
*505 id_to_wb1/id_and_ex1/id1/registerfile1/register_memory[16]
*506 id_to_wb1/id_and_ex1/id1/registerfile1/register_memory[15]
*507 id_to_wb1/id_and_ex1/id1/registerfile1/register_memory[14]
*508 id_to_wb1/id_and_ex1/id1/registerfile1/register_memory[13]
*509 id_to_wb1/id_and_ex1/id1/registerfile1/register_memory[12]
*510 id_to_wb1/id_and_ex1/id1/registerfile1/register_memory[11]
*511 id_to_wb1/id_and_ex1/id1/registerfile1/register_memory[10]
*512 id_to_wb1/id_and_ex1/id1/registerfile1/register_memory[9]
*513 id_to_wb1/id_and_ex1/id1/registerfile1/register_memory[8]
*514 id_to_wb1/id_and_ex1/id1/registerfile1/register_memory[7]
*515 id_to_wb1/id_and_ex1/id1/registerfile1/register_memory[6]
*516 id_to_wb1/id_and_ex1/id1/registerfile1/register_memory[5]
*517 id_to_wb1/id_and_ex1/id1/registerfile1/register_memory[4]
*518 id_to_wb1/id_and_ex1/id1/registerfile1/register_memory[3]
*519 id_to_wb1/id_and_ex1/id1/registerfile1/register_memory[2]
*520 id_to_wb1/id_and_ex1/id1/registerfile1/register_memory[1]
*521 id_to_wb1/id_and_ex1/id1/registerfile1/register_memory[0]
*522 id_to_wb1/id_and_ex1/id1/control1/n5
*523 id_to_wb1/id_and_ex1/id1/control1/n6
*524 id_to_wb1/id_and_ex1/id1/control1/n7
*525 id_to_wb1/id_and_ex1/id1/control1/n8
*526 id_to_wb1/id_and_ex1/id1/control1/n9
*527 id_to_wb1/id_and_ex1/id1/control1/n2
*528 id_to_wb1/id_and_ex1/id1/control1/n3
*529 id_to_wb1/id_and_ex1/id1/control1/n4
*530 id_to_wb1/id_and_ex1/id1/control1/n10
*531 id_to_wb1/id_and_ex1/id1/idex1/N3
*532 id_to_wb1/id_and_ex1/id1/idex1/N4
*533 id_to_wb1/id_and_ex1/id1/idex1/N5
*534 id_to_wb1/id_and_ex1/id1/idex1/N6
*535 id_to_wb1/id_and_ex1/id1/idex1/N7
*536 id_to_wb1/id_and_ex1/id1/idex1/N8
*537 id_to_wb1/id_and_ex1/id1/idex1/N9
*538 id_to_wb1/id_and_ex1/id1/idex1/N10
*539 id_to_wb1/id_and_ex1/id1/idex1/N11
*540 id_to_wb1/id_and_ex1/id1/idex1/N12
*541 id_to_wb1/id_and_ex1/id1/idex1/N13
*542 id_to_wb1/id_and_ex1/id1/idex1/N14
*543 id_to_wb1/id_and_ex1/id1/idex1/N15
*544 id_to_wb1/id_and_ex1/id1/idex1/N16
*545 id_to_wb1/id_and_ex1/id1/idex1/N17
*546 id_to_wb1/id_and_ex1/id1/idex1/N18
*547 id_to_wb1/id_and_ex1/id1/idex1/N19
*548 id_to_wb1/id_and_ex1/id1/idex1/N20
*549 id_to_wb1/id_and_ex1/id1/idex1/N21
*550 id_to_wb1/id_and_ex1/id1/idex1/N22
*551 id_to_wb1/id_and_ex1/id1/idex1/N23
*552 id_to_wb1/id_and_ex1/id1/idex1/N24
*553 id_to_wb1/id_and_ex1/id1/idex1/N25
*554 id_to_wb1/id_and_ex1/id1/idex1/N26
*555 id_to_wb1/id_and_ex1/id1/idex1/N27
*556 id_to_wb1/id_and_ex1/id1/idex1/N28
*557 id_to_wb1/id_and_ex1/id1/idex1/N29
*558 id_to_wb1/id_and_ex1/id1/idex1/N30
*559 id_to_wb1/id_and_ex1/id1/idex1/N31
*560 id_to_wb1/id_and_ex1/id1/idex1/N32
*561 id_to_wb1/id_and_ex1/id1/idex1/N33
*562 id_to_wb1/id_and_ex1/id1/idex1/N34
*563 id_to_wb1/id_and_ex1/id1/idex1/N35
*564 id_to_wb1/id_and_ex1/id1/idex1/N36
*565 id_to_wb1/id_and_ex1/id1/idex1/N37
*566 id_to_wb1/id_and_ex1/id1/idex1/N38
*567 id_to_wb1/id_and_ex1/id1/idex1/N39
*568 id_to_wb1/id_and_ex1/id1/idex1/n6
*569 id_to_wb1/id_and_ex1/alu1/N106
*570 id_to_wb1/id_and_ex1/alu1/N107
*571 id_to_wb1/id_and_ex1/alu1/N108
*572 id_to_wb1/id_and_ex1/alu1/N109
*573 id_to_wb1/id_and_ex1/alu1/N110
*574 id_to_wb1/id_and_ex1/alu1/N111
*575 id_to_wb1/id_and_ex1/alu1/N112
*576 id_to_wb1/id_and_ex1/alu1/N113
*577 id_to_wb1/id_and_ex1/alu1/N114
*578 id_to_wb1/id_and_ex1/alu1/N115
*579 id_to_wb1/id_and_ex1/alu1/N116
*580 id_to_wb1/id_and_ex1/alu1/N117
*581 id_to_wb1/id_and_ex1/alu1/N118
*582 id_to_wb1/id_and_ex1/alu1/N119
*583 id_to_wb1/id_and_ex1/alu1/N120
*584 id_to_wb1/id_and_ex1/alu1/N121
*585 id_to_wb1/id_and_ex1/alu1/n36
*586 id_to_wb1/id_and_ex1/alu1/n37
*587 id_to_wb1/id_and_ex1/alu1/n38
*588 id_to_wb1/id_and_ex1/alu1/n39
*589 id_to_wb1/id_and_ex1/alu1/n40
*590 id_to_wb1/id_and_ex1/alu1/n41
*591 id_to_wb1/id_and_ex1/alu1/n42
*592 id_to_wb1/id_and_ex1/alu1/n43
*593 id_to_wb1/id_and_ex1/alu1/n44
*594 id_to_wb1/id_and_ex1/alu1/n45
*595 id_to_wb1/id_and_ex1/alu1/n46
*596 id_to_wb1/id_and_ex1/alu1/n47
*597 id_to_wb1/id_and_ex1/alu1/n48
*598 id_to_wb1/id_and_ex1/alu1/n49
*599 id_to_wb1/id_and_ex1/alu1/n50
*600 id_to_wb1/id_and_ex1/alu1/n51
*601 id_to_wb1/id_and_ex1/alu1/n52
*602 id_to_wb1/id_and_ex1/alu1/n53
*603 id_to_wb1/id_and_ex1/alu1/n54
*604 id_to_wb1/id_and_ex1/alu1/n55
*605 id_to_wb1/id_and_ex1/alu1/n56
*606 id_to_wb1/id_and_ex1/alu1/n57
*607 id_to_wb1/id_and_ex1/alu1/n58
*608 id_to_wb1/id_and_ex1/alu1/n59
*609 id_to_wb1/id_and_ex1/alu1/n60
*610 id_to_wb1/id_and_ex1/alu1/n61
*611 id_to_wb1/id_and_ex1/alu1/n62
*612 id_to_wb1/id_and_ex1/alu1/n63
*613 id_to_wb1/id_and_ex1/alu1/n64
*614 id_to_wb1/id_and_ex1/alu1/n65
*615 id_to_wb1/id_and_ex1/alu1/n66
*616 id_to_wb1/id_and_ex1/alu1/n67
*617 id_to_wb1/id_and_ex1/alu1/n68
*618 id_to_wb1/id_and_ex1/alu1/n69
*619 id_to_wb1/id_and_ex1/alu1/n70
*620 id_to_wb1/id_and_ex1/alu1/n71
*621 id_to_wb1/id_and_ex1/alu1/n72
*622 id_to_wb1/id_and_ex1/alu1/n73
*623 id_to_wb1/id_and_ex1/alu1/n74
*624 id_to_wb1/id_and_ex1/alu1/n75
*625 id_to_wb1/id_and_ex1/alu1/n76
*626 id_to_wb1/id_and_ex1/alu1/n77
*627 id_to_wb1/id_and_ex1/alu1/n78
*628 id_to_wb1/id_and_ex1/alu1/n79
*629 id_to_wb1/id_and_ex1/alu1/n80
*630 id_to_wb1/id_and_ex1/alu1/n81
*631 id_to_wb1/id_and_ex1/alu1/n82
*632 id_to_wb1/id_and_ex1/alu1/n83
*633 id_to_wb1/id_and_ex1/alu1/n84
*634 id_to_wb1/id_and_ex1/alu1/n85
*635 id_to_wb1/id_and_ex1/alu1/n86
*636 id_to_wb1/id_and_ex1/alu1/n87
*637 id_to_wb1/id_and_ex1/alu1/n88
*638 id_to_wb1/id_and_ex1/alu1/n89
*639 id_to_wb1/id_and_ex1/alu1/n90
*640 id_to_wb1/id_and_ex1/alu1/n91
*641 id_to_wb1/id_and_ex1/alu1/n92
*642 id_to_wb1/id_and_ex1/alu1/n93
*643 id_to_wb1/id_and_ex1/alu1/n94
*644 id_to_wb1/id_and_ex1/alu1/n95
*645 id_to_wb1/id_and_ex1/alu1/n96
*646 id_to_wb1/id_and_ex1/alu1/n97
*647 id_to_wb1/id_and_ex1/alu1/n98
*648 id_to_wb1/id_and_ex1/alu1/n99
*649 id_to_wb1/id_and_ex1/alu1/n1
*650 id_to_wb1/id_and_ex1/alu1/n2
*651 id_to_wb1/id_and_ex1/alu1/n3
*652 id_to_wb1/id_and_ex1/alu1/n4
*653 id_to_wb1/id_and_ex1/alu1/n5
*654 id_to_wb1/id_and_ex1/alu1/n6
*655 id_to_wb1/id_and_ex1/alu1/n9
*656 id_to_wb1/id_and_ex1/alu1/n10
*657 id_to_wb1/id_and_ex1/alu1/n11
*658 id_to_wb1/id_and_ex1/alu1/n12
*659 id_to_wb1/id_and_ex1/alu1/n13
*660 id_to_wb1/id_and_ex1/alu1/n14
*661 id_to_wb1/id_and_ex1/alu1/n15
*662 id_to_wb1/id_and_ex1/alu1/n16
*663 id_to_wb1/id_and_ex1/alu1/n17
*664 id_to_wb1/id_and_ex1/alu1/n18
*665 id_to_wb1/id_and_ex1/alu1/n19